
**** 04/23/24 14:43:52 **** PSpice 22.1.0 (6 October 2022) **** ID# 0 ********

 ** Profile: "SCHEMATIC1-R_cresc"  [ D:\Programe\Cadence\Laburi_Teme_Shit\Pop_Sebastian_Radu-PSpiceFiles\SCHEMATIC1\R_cresc.sim ] 


 ****     CIRCUIT DESCRIPTION


******************************************************************************




** Creating circuit file "R_cresc.cir" 
** WARNING: THIS AUTOMATICALLY GENERATED FILE MAY BE OVERWRITTEN BY SUBSEQUENT SIMULATIONS

*Libraries: 
* Profile Libraries :
* Local Libraries :
* From [PSPICE NETLIST] section of D:\Programe\Cadence\Working Shit\cdssetup\OrCAD_PSpice\22.1.0\PSpice.ini file:
.lib "nom.lib" 

*Analysis directives: 
.DC LIN PARAM r 33k 66k 330 
.OPTIONS ADVCONV
.PROBE64 V(alias(*)) I(alias(*)) W(alias(*)) D(alias(*)) NOISE(alias(*)) 
.INC "..\SCHEMATIC1.net" 



**** INCLUDING SCHEMATIC1.net ****
* source POP_SEBASTIAN_RADU
R_R6         N58040 VREF2 R_R6 10k TC=0,0 
.model        R_R6 RES R=1 DEV=0.5% TC1=0 TC2=0
X_U5         N58808 VREF2 VCC 0 VREF2 LM741
R_R1         VREF1 N58124 R_R1 1k TC=0,0 
.model        R_R1 RES R=1 DEV=0.5% TC1=0 TC2=0
X_U4         N58804 VREF1 VCC 0 VREF1 LM741
R_R5         N58230 0  33k TC=0,0 
R_R20         0 N58808  620 TC=0,0 
R_R4         0 N58532 R_R4 5.1k TC=0,0 
.model        R_R4 RES R=1 DEV=0.5% TC1=0 TC2=0
R_R17         N58804 VCC  30k TC=0,0 
R_R8         OUT N58392 R_R8 5.6k TC=0,0 
.model        R_R8 RES R=1 DEV=0.5% TC1=0 TC2=0
R_R3         N58524 N58532 R_R3 1k TC=0,0 
.model        R_R3 RES R=1 DEV=0.5% TC1=0 TC2=0
V_V1         VCC 0 15V
R_R19         N58808 N586521  470 TC=0,0 
R_Rs         VCC N58230  {r} TC=0,0 
Q_Q6         N581480 N58392 0 BC107A 
R_R2         N58124 N58130 R_R2 5.1k TC=0,0 
.model        R_R2 RES R=1 DEV=0.5% TC1=0 TC2=0
R_R9         VCC N581480  200 TC=0,0 
R_R7         N58040 OUT R_R7 14k TC=0,0 
.model        R_R7 RES R=1 DEV=0.5% TC1=0 TC2=0
X_U1         N58230 N58524 VCC 0 N58524 LM741
R_R21         N586521 VCC  10k TC=0,0 
X_U2         N58532 N58124 VCC 0 N58130 LM741
R_R18         N588201 N58804  13k TC=0,0 
X_U3         N58040 N58130 VCC 0 OUT LM741
R_R23         0 N588201  1.8k TC=0,0 
.PARAM  r=66k

**** RESUMING R_cresc.cir ****
.END

**** 04/23/24 14:43:52 **** PSpice 22.1.0 (6 October 2022) **** ID# 0 ********

 ** Profile: "SCHEMATIC1-R_cresc"  [ D:\Programe\Cadence\Laburi_Teme_Shit\Pop_Sebastian_Radu-PSpiceFiles\SCHEMATIC1\R_cresc.sim ] 


 ****     Diode MODEL PARAMETERS


******************************************************************************




               X_U5.x_lm741.dx X_U5.x_lm741.dy X_U4.x_lm741.dx X_U4.x_lm741.dy 
          IS  800.000000E-18  800.000000E-18  800.000000E-18  800.000000E-18 
          RS    1               1.000000E-03    1               1.000000E-03 
         CJO                   10.000000E-12                   10.000000E-12 


               X_U1.x_lm741.dx X_U1.x_lm741.dy X_U2.x_lm741.dx X_U2.x_lm741.dy 
          IS  800.000000E-18  800.000000E-18  800.000000E-18  800.000000E-18 
          RS    1               1.000000E-03    1               1.000000E-03 
         CJO                   10.000000E-12                   10.000000E-12 


               X_U3.x_lm741.dx X_U3.x_lm741.dy 
          IS  800.000000E-18  800.000000E-18 
          RS    1               1.000000E-03 
         CJO                   10.000000E-12 


**** 04/23/24 14:43:52 **** PSpice 22.1.0 (6 October 2022) **** ID# 0 ********

 ** Profile: "SCHEMATIC1-R_cresc"  [ D:\Programe\Cadence\Laburi_Teme_Shit\Pop_Sebastian_Radu-PSpiceFiles\SCHEMATIC1\R_cresc.sim ] 


 ****     BJT MODEL PARAMETERS


******************************************************************************




               BC107A          X_U5.x_lm741.qx X_U4.x_lm741.qx X_U1.x_lm741.qx 
               NPN             NPN             NPN             NPN             
       LEVEL    1               1               1               1            
          IS    7.049000E-15  800.000000E-18  800.000000E-18  800.000000E-18 
          BF  375.5            93.75           93.75           93.75         
          NF    1               1               1               1            
         VAF  116.3                                                          
         IKF    4.589                                                        
         ISE    7.049000E-15                                                 
          NE    1.281                                                        
          BR    2.611           1               1               1            
          NR    1               1               1               1            
         IKR    5.313                                                        
         ISC  121.700000E-12                                                 
          NC    1.865                                                        
         ISS    0               0               0               0            
          RE    0               0               0               0            
          RC    1.464           0               0               0            
         CJE   11.500000E-12    0               0               0            
         VJE     .5              .75             .75             .75         
         MJE     .2717                                                       
         CJC    5.380000E-12    0               0               0            
         VJC     .6218           .75             .75             .75         
         MJC     .329            .33             .33             .33         
        XCJC    1               1               1               1            
         CJS    0               0               0               0            
         VJS     .75             .75             .75             .75         
          TF  451.000000E-12                                                 
         XTF   17.43                                                         
         VTF   10                                                            
         ITF    6.194                                                        
          TR   10.000000E-09                                                 
         XTB    1.5                                                          
          KF    0               0               0               0            
          AF    1               1               1               1            
          CN    2.42            2.42            2.42            2.42         
           D     .87             .87             .87             .87         


               X_U2.x_lm741.qx X_U3.x_lm741.qx 
               NPN             NPN             
       LEVEL    1               1            
          IS  800.000000E-18  800.000000E-18 
          BF   93.75           93.75         
          NF    1               1            
          BR    1               1            
          NR    1               1            
         ISS    0               0            
          RE    0               0            
          RC    0               0            
         CJE    0               0            
         VJE     .75             .75         
         CJC    0               0            
         VJC     .75             .75         
         MJC     .33             .33         
        XCJC    1               1            
         CJS    0               0            
         VJS     .75             .75         
          KF    0               0            
          AF    1               1            
          CN    2.42            2.42         
           D     .87             .87         


**** 04/23/24 14:43:52 **** PSpice 22.1.0 (6 October 2022) **** ID# 0 ********

 ** Profile: "SCHEMATIC1-R_cresc"  [ D:\Programe\Cadence\Laburi_Teme_Shit\Pop_Sebastian_Radu-PSpiceFiles\SCHEMATIC1\R_cresc.sim ] 


 ****     Resistor MODEL PARAMETERS


******************************************************************************




               R_R6            R_R1            R_R4            R_R8            
           R    1               1               1               1            


               R_R3            R_R2            R_R7            
           R    1               1               1            


Starting pseudo-transient algorithm.

INFO(ORPSIM-16594): To improve Pseudotransient Convergence and Performance, set following options to relax stabilization criteria for capacitor currents and inductor voltages: PTRANABSTOL=1e-5, PTRANVNTOL=1e-4

ERROR -- Convergence problem in DC sweep


  Last node voltages tried were:

 NODE   VOLTAGE     NODE   VOLTAGE     NODE   VOLTAGE     NODE   VOLTAGE


(  OUT)    0.0000  (  VCC)    0.0000  (VREF1)    0.0000  (VREF2)    0.0000      

(N58040)    0.0000 (N58124)    0.0000 (N58130)    0.0000 (N58230)    0.0000     

(N58392)    0.0000 (N58524)    0.0000 (N58532)    0.0000 (N58804)    0.0000     

(N58808)    0.0000 (N581480)    0.0000                   (N586521)    0.0000    

(N588201)    0.0000                   (X_U1.x_lm741.6)    0.0000                

(X_U1.x_lm741.7)    0.0000            (X_U1.x_lm741.8)    0.0000                

(X_U1.x_lm741.9)    0.0000            (X_U2.x_lm741.6)    0.0000                

(X_U2.x_lm741.7)    0.0000            (X_U2.x_lm741.8)    0.0000                

(X_U2.x_lm741.9)    0.0000            (X_U3.x_lm741.6)    0.0000                

(X_U3.x_lm741.7)    0.0000            (X_U3.x_lm741.8)    0.0000                

(X_U3.x_lm741.9)    0.0000            (X_U4.x_lm741.6)    0.0000                

(X_U4.x_lm741.7)    0.0000            (X_U4.x_lm741.8)    0.0000                

(X_U4.x_lm741.9)    0.0000            (X_U5.x_lm741.6)    0.0000                

(X_U5.x_lm741.7)    0.0000            (X_U5.x_lm741.8)    0.0000                

(X_U5.x_lm741.9)    0.0000            (X_U1.x_lm741.10)    0.0000               

(X_U1.x_lm741.11)    0.0000           (X_U1.x_lm741.12)    0.0000               

(X_U1.x_lm741.13)    0.0000           (X_U1.x_lm741.14)    0.0000               

(X_U1.x_lm741.53)    0.0000           (X_U1.x_lm741.54)    0.0000               

(X_U1.x_lm741.90)    0.0000           (X_U1.x_lm741.91)    0.0000               

(X_U1.x_lm741.92)    0.0000           (X_U1.x_lm741.99)    0.0000               

(X_U2.x_lm741.10)    0.0000           (X_U2.x_lm741.11)    0.0000               

(X_U2.x_lm741.12)    0.0000           (X_U2.x_lm741.13)    0.0000               

(X_U2.x_lm741.14)    0.0000           (X_U2.x_lm741.53)    0.0000               

(X_U2.x_lm741.54)    0.0000           (X_U2.x_lm741.90)    0.0000               

(X_U2.x_lm741.91)    0.0000           (X_U2.x_lm741.92)    0.0000               

(X_U2.x_lm741.99)    0.0000           (X_U3.x_lm741.10)    0.0000               

(X_U3.x_lm741.11)    0.0000           (X_U3.x_lm741.12)    0.0000               

(X_U3.x_lm741.13)    0.0000           (X_U3.x_lm741.14)    0.0000               

(X_U3.x_lm741.53)    0.0000           (X_U3.x_lm741.54)    0.0000               

(X_U3.x_lm741.90)    0.0000           (X_U3.x_lm741.91)    0.0000               

(X_U3.x_lm741.92)    0.0000           (X_U3.x_lm741.99)    0.0000               

(X_U4.x_lm741.10)    0.0000           (X_U4.x_lm741.11)    0.0000               

(X_U4.x_lm741.12)    0.0000           (X_U4.x_lm741.13)    0.0000               

(X_U4.x_lm741.14)    0.0000           (X_U4.x_lm741.53)    0.0000               

(X_U4.x_lm741.54)    0.0000           (X_U4.x_lm741.90)    0.0000               

(X_U4.x_lm741.91)    0.0000           (X_U4.x_lm741.92)    0.0000               

(X_U4.x_lm741.99)    0.0000           (X_U5.x_lm741.10)    0.0000               

(X_U5.x_lm741.11)    0.0000           (X_U5.x_lm741.12)    0.0000               

(X_U5.x_lm741.13)    0.0000           (X_U5.x_lm741.14)    0.0000               

(X_U5.x_lm741.53)    0.0000           (X_U5.x_lm741.54)    0.0000               

(X_U5.x_lm741.90)    0.0000           (X_U5.x_lm741.91)    0.0000               

(X_U5.x_lm741.92)    0.0000           (X_U5.x_lm741.99)    0.0000           


  These voltages failed to converge:

    V(N58040)                 =    414.19V  \         0V
    V(VREF2)                  =    414.38V  \         0V
    V(VREF1)                  =    414.38V  \         0V
    V(N58124)                 =    414.36V  \         0V
    V(N58230)                 =     5.068V  \         0V
    V(N58808)                 =   838.59mV  \         0V
    V(N58532)                 =    343.69V  \         0V
    V(N58804)                 =     4.955V  \         0V
    V(VCC)                    =     15.00V  \         0V
    V(OUT)                    =    413.92V  \         0V
    V(N58392)                 =    376.89V  \         0V
    V(N58524)                 =    411.09V  \         0V
    V(N586521)                =     1.474V  \         0V
    V(N581480)                =     15.41V  \         0V
    V(N58130)                 =    414.26V  \         0V
    V(N588201)                =   602.68mV  \         0V
    V(X_U5.x_lm741.11)        =     15.00V  \         0V
    V(X_U5.x_lm741.12)        =     15.00V  \         0V
    V(X_U5.x_lm741.6)         =  -119.23mV  \         0V
    V(X_U5.x_lm741.7)         =    414.81V  \         0V
    V(X_U5.x_lm741.53)        =     14.00V  \         0V
    V(X_U5.x_lm741.54)        =     1.000V  \         0V
    V(X_U5.x_lm741.90)        =     8.588V  \         0V
    V(X_U5.x_lm741.91)        =     40.00V  \         0V
    V(X_U5.x_lm741.92)        =    -40.00V  \         0V
    V(X_U5.x_lm741.99)        =     7.500V  \         0V
    V(X_U5.x_lm741.10)        =   -192.45V  \         0V
    V(X_U5.x_lm741.13)        =   -192.45V  \         0V
    V(X_U5.x_lm741.14)        =   -192.45V  \         0V
    V(X_U5.x_lm741.8)         =    414.81V  \         0V
    V(X_U4.x_lm741.11)        =     15.00V  \         0V
    V(X_U4.x_lm741.12)        =     15.00V  \         0V
    V(X_U4.x_lm741.6)         =  -119.23mV  \         0V
    V(X_U4.x_lm741.7)         =    414.81V  \         0V
    V(X_U4.x_lm741.53)        =     14.00V  \         0V
    V(X_U4.x_lm741.54)        =     1.000V  \         0V
    V(X_U4.x_lm741.90)        =     8.588V  \         0V
    V(X_U4.x_lm741.91)        =     40.00V  \         0V
    V(X_U4.x_lm741.92)        =    -40.00V  \         0V
    V(X_U4.x_lm741.99)        =     7.500V  \         0V
    V(X_U4.x_lm741.10)        =   -192.45V  \         0V
    V(X_U4.x_lm741.13)        =   -192.45V  \         0V
    V(X_U4.x_lm741.14)        =   -192.45V  \         0V
    V(X_U4.x_lm741.8)         =    414.81V  \         0V
    V(X_U1.x_lm741.11)        =     15.00V  \         0V
    V(X_U1.x_lm741.12)        =     15.00V  \         0V
    V(X_U1.x_lm741.6)         =  -119.23mV  \         0V
    V(X_U1.x_lm741.7)         =    414.88V  \         0V
    V(X_U1.x_lm741.53)        =     14.00V  \         0V
    V(X_U1.x_lm741.54)        =     1.000V  \         0V
    V(X_U1.x_lm741.90)        =     75.89V  \         0V
    V(X_U1.x_lm741.91)        =     40.00V  \         0V
    V(X_U1.x_lm741.92)        =    -40.00V  \         0V
    V(X_U1.x_lm741.99)        =     7.500V  \         0V
    V(X_U1.x_lm741.10)        =   -192.45V  \         0V
    V(X_U1.x_lm741.13)        =   -192.45V  \         0V
    V(X_U1.x_lm741.14)        =   -192.45V  \         0V
    V(X_U1.x_lm741.8)         =    414.88V  \         0V
    V(X_U2.x_lm741.11)        =     15.00V  \         0V
    V(X_U2.x_lm741.12)        =     15.00V  \         0V
    V(X_U2.x_lm741.6)         =  -119.20mV  \         0V
    V(X_U2.x_lm741.7)         =    414.69V  \         0V
    V(X_U2.x_lm741.53)        =     14.00V  \         0V
    V(X_U2.x_lm741.54)        =     1.000V  \         0V
    V(X_U2.x_lm741.90)        =     8.547V  \         0V
    V(X_U2.x_lm741.91)        =     40.00V  \         0V
    V(X_U2.x_lm741.92)        =    -40.00V  \         0V
    V(X_U2.x_lm741.99)        =     7.500V  \         0V
    V(X_U2.x_lm741.10)        =   -192.45V  \         0V
    V(X_U2.x_lm741.13)        =   -192.45V  \         0V
    V(X_U2.x_lm741.14)        =   -192.45V  \         0V
    V(X_U2.x_lm741.8)         =    414.69V  \         0V
    V(X_U3.x_lm741.11)        =     15.00V  \         0V
    V(X_U3.x_lm741.12)        =     15.00V  \         0V
    V(X_U3.x_lm741.6)         =  -119.19mV  \         0V
    V(X_U3.x_lm741.7)         =    414.67V  \         0V
    V(X_U3.x_lm741.53)        =     14.00V  \         0V
    V(X_U3.x_lm741.54)        =     1.000V  \         0V
    V(X_U3.x_lm741.90)        =     15.15V  \         0V
    V(X_U3.x_lm741.91)        =     40.00V  \         0V
    V(X_U3.x_lm741.92)        =    -40.00V  \         0V
    V(X_U3.x_lm741.99)        =     7.500V  \         0V
    V(X_U3.x_lm741.10)        =   -192.45V  \         0V
    V(X_U3.x_lm741.13)        =   -192.45V  \         0V
    V(X_U3.x_lm741.14)        =   -192.45V  \         0V
    V(X_U3.x_lm741.8)         =    414.67V  \         0V

  These supply currents failed to converge:

    I(X_U5.x_lm741.egnd)      =   -8.604mA  \         0A
    I(X_U4.x_lm741.egnd)      =   -8.603mA  \         0A
    I(X_U1.x_lm741.egnd)      =   -75.91mA  \         0A
    I(X_U2.x_lm741.egnd)      =   -8.562mA  \         0A
    I(X_U3.x_lm741.egnd)      =   -15.17mA  \         0A
    I(V_V1)                   =    17.12mA  \         0A
    I(X_U5.x_lm741.vb)        =   -1.192uA  \         0A
    I(X_U5.x_lm741.vc)        =   -4.216mA  \         0A
    I(X_U5.x_lm741.ve)        =    4.353mA  \         0A
    I(X_U5.x_lm741.vlim)      =    8.588mA  \         0A
    I(X_U5.x_lm741.vlp)       =   -32.38pA  \         0A
    I(X_U5.x_lm741.vln)       =   -50.09pA  \         0A
    I(X_U4.x_lm741.vb)        =   -1.192uA  \         0A
    I(X_U4.x_lm741.vc)        =   -4.216mA  \         0A
    I(X_U4.x_lm741.ve)        =    4.353mA  \         0A
    I(X_U4.x_lm741.vlim)      =    8.588mA  \         0A
    I(X_U4.x_lm741.vlp)       =   -32.38pA  \         0A
    I(X_U4.x_lm741.vln)       =   -50.09pA  \         0A
    I(X_U1.x_lm741.vb)        =   -1.192uA  \         0A
    I(X_U1.x_lm741.vc)        =   -4.181mA  \         0A
    I(X_U1.x_lm741.ve)        =    4.318mA  \         0A
    I(X_U1.x_lm741.vlim)      =    75.89mA  \         0A
    I(X_U1.x_lm741.vlp)       =    37.00pA  \         0A
    I(X_U1.x_lm741.vln)       =  -119.48pA  \         0A
    I(X_U2.x_lm741.vb)        =   -1.192uA  \         0A
    I(X_U2.x_lm741.vc)        =   -4.215mA  \         0A
    I(X_U2.x_lm741.ve)        =    4.352mA  \         0A
    I(X_U2.x_lm741.vlim)      =    8.547mA  \         0A
    I(X_U2.x_lm741.vlp)       =   -32.43pA  \         0A
    I(X_U2.x_lm741.vln)       =   -50.05pA  \         0A
    I(X_U3.x_lm741.vb)        =   -1.192uA  \         0A
    I(X_U3.x_lm741.vc)        =   -4.211mA  \         0A
    I(X_U3.x_lm741.ve)        =    4.348mA  \         0A
    I(X_U3.x_lm741.vlim)      =    15.15mA  \         0A
    I(X_U3.x_lm741.vlp)       =   -25.62pA  \         0A
    I(X_U3.x_lm741.vln)       =   -56.86pA  \         0A
    I(X_U5.x_lm741.hlim)      =   -17.71pA  \         0A
    I(X_U4.x_lm741.hlim)      =   -17.71pA  \         0A
    I(X_U1.x_lm741.hlim)      =  -156.49pA  \         0A
    I(X_U2.x_lm741.hlim)      =   -17.63pA  \         0A
    I(X_U3.x_lm741.hlim)      =   -31.24pA  \         0A

  These devices failed to converge:
    X_U5.x_lm741.dc X_U5.x_lm741.de X_U5.x_lm741.dln X_U4.x_lm741.dc 
    X_U4.x_lm741.de X_U4.x_lm741.dln X_U1.x_lm741.dc X_U1.x_lm741.de 
    X_U1.x_lm741.dlp X_U1.x_lm741.dln X_U2.x_lm741.dc X_U2.x_lm741.de 
    X_U2.x_lm741.dln X_U3.x_lm741.dc X_U3.x_lm741.de X_U3.x_lm741.dln 
    X_U5.x_lm741.fb X_U4.x_lm741.fb X_U1.x_lm741.fb X_U2.x_lm741.fb 
    X_U3.x_lm741.fb Q_Q6      X_U5.x_lm741.q1 X_U5.x_lm741.q2 X_U4.x_lm741.q1 
    X_U4.x_lm741.q2 X_U1.x_lm741.q1 X_U1.x_lm741.q2 X_U2.x_lm741.q1 
    X_U2.x_lm741.q2 X_U3.x_lm741.q1 X_U3.x_lm741.q2 

**** Interrupt ****
